!!>>>>>>>>>>>>>>>>>>>>>>>>>>>>>>>>>>>>>>>>>>>>>>>>>>>>>>>>>>>>>>>>>>>>>>
!! NEMO/OPA  :  1 - run manager      (namrun)
!! namelists    2 - Domain           (namzgr, namzgr_sco, namdom, namtsd)
!!              3 - Surface boundary (namsbc, namsbc_ana, namsbc_flx, namsbc_clio, namsbc_core
!!                                    namsbc_cpl, namtra_qsr, namsbc_rnf,
!!                                    namsbc_apr, namsbc_ssr, namsbc_alb)
!!              4 - lateral boundary (namlbc, namcla, namobc, namagrif, nambdy, nambdy_tide)
!!              5 - bottom  boundary (nambfr, nambbc, nambbl)
!!              6 - Tracer           (nameos, namtra_adv, namtra_ldf, namtra_dmp)
!!              7 - dynamics         (namdyn_adv, namdyn_vor, namdyn_hpg, namdyn_spg, namdyn_ldf)
!!              8 - Verical physics  (namzdf, namzdf_ric, namzdf_tke, namzdf_kpp, namzdf_ddm, namzdf_tmx)
!!              9 - diagnostics      (namnc4, namtrd, namspr, namflo, namptr, namhsb)
!!             10 - miscellaneous    (namsol, nammpp, nammpp_dyndist, namctl)
!!             11 - Obs & Assim      (namobs, nam_asminc)
!!>>>>>>>>>>>>>>>>>>>>>>>>>>>>>>>>>>>>>>>>>>>>>>>>>>>>>>>>>>>>>>>>>>>>>>

!!======================================================================
!!                   ***  Run management namelists  ***
!!======================================================================
!!   namrun        parameters of the run
!!======================================================================
!
!-----------------------------------------------------------------------
&namrun        !   parameters of the run
!-----------------------------------------------------------------------
   nn_no       =       0   !  job number (no more used...)
   cn_exp      =  "GLK"  !  experience name
   nn_it000    =     876001     !  first time step
   nn_itend    =    1752000   !  last  time step (std 5475)
   nn_date0    =  20071231   !  date at nit_0000 (format yyyymmdd) used if ln_rstart=F or (ln_rstart=T and nn_rstctl=0 or 1)
   nn_leapy    =       0   !  Leap year calendar (1) or not (0)
   ln_rstart   = .true.   !  start from rest (F) or from a restart file (T)
   nn_rstctl   =       2   !  restart control => activated only if ln_rstart = T
                           !    = 0 nn_date0 read in namelist ; nn_it000 : read in namelist
                           !    = 1 nn_date0 read in namelist ; nn_it000 : check consistancy between namelist and restart
                           !    = 2 nn_date0 read in restart  ; nn_it000 : check consistancy between namelist and restart
   cn_ocerst_in  = "GLK_00876000_restart"   !  suffix of ocean restart name (input)
   cn_ocerst_out = "restart"   !  suffix of ocean restart name (output)
   nn_istate   =       1   !  output the initial state (1) or not (0)
   nn_stock    =    175200   !  frequency of creation of a restart file (modulo referenced to 1)
   nn_write    =    480   !  frequency of write in the output file   (modulo referenced to nn_it000)
   ln_dimgnnn  = .false.   !  DIMG file format: 1 file for all processors (F) or by processor (T)
   ln_mskland  = .false.   !  mask land points in NetCDF outputs (costly: + ~15%)
   ln_clobber  = .false.   !  clobber (overwrite) an existing file
   nn_chunksz  =       0   !  chunksize (bytes) for NetCDF file (works only with iom_nf90 routines)
/

!!======================================================================
!!                      ***  Domain namelists  ***
!!======================================================================
!!   namzgr       vertical coordinate
!!   namzgr_sco   s-coordinate or hybrid z-s-coordinate
!!   namdom       space and time domain (bathymetry, mesh, timestep)
!!   namtsd       data: temperature & salinity
!!======================================================================
!
!-----------------------------------------------------------------------
&namzgr        !   vertical coordinate
!-----------------------------------------------------------------------
   ln_zco      = .false.   !  z-coordinate - full    steps   (T/F)      ("key_zco" may also be defined)
   ln_zps      = .true.    !  z-coordinate - partial steps   (T/F)
   ln_sco      = .false.   !  s- or hybrid z-s-coordinate    (T/F)
/
!-----------------------------------------------------------------------
&namzgr_sco    !   s-coordinate or hybrid z-s-coordinate
!-----------------------------------------------------------------------
   rn_sbot_min =  300.     !  minimum depth of s-bottom surface (>0) (m)
   rn_sbot_max = 5250.     !  maximum depth of s-bottom surface (= ocean depth) (>0) (m)
   rn_theta    =    6.0    !  surface control parameter (0<=rn_theta<=20)
   rn_thetb    =    0.75   !  bottom control parameter  (0<=rn_thetb<= 1)
   rn_rmax     =    0.15   !  maximum cut-off r-value allowed (0<rn_max<1)
   ln_s_sigma  = .false.   !  hybrid s-sigma coordinates
   rn_bb       =    0.8    !  stretching with s-sigma
   rn_hc       =  150.0    !  critical depth with s-sigma
/
!-----------------------------------------------------------------------
&namdom        !   space and time domain (bathymetry, mesh, timestep)
!-----------------------------------------------------------------------
   nn_bathy    =    1      !  compute (=0) or read (=1) the bathymetry file
   nn_closea    =   0      !  remove (=0) or keep (=1) closed seas and lakes (ORCA)
   nn_msh      =    0      !  create (=1) a mesh file or not (=0)
   rn_hmin     =   -3.     !  min depth of the ocean (>0) or min number of ocean level (<0)
   rn_e3zps_min=   1.     !  partial step thickness is set larger than the minimum of
   rn_e3zps_rat=    0.1    !  rn_e3zps_min and rn_e3zps_rat*e3t, with 0<rn_e3zps_rat<1
                        !
   rn_rdt      = 1800.     !  time step for the dynamics (and tracer if nn_acc=0)
   nn_baro     =   600      !  number of barotropic time step            ("key_dynspg_ts")
   rn_atfp     =    0.5    !  asselin time filter parameter
   nn_acc      =    0      !  acceleration of convergence : =1      used, rdt < rdttra(k)
                                 !                          =0, not used, rdt = rdttra
   rn_rdtmin   = 28800.          !  minimum time step on tracers (used if nn_acc=1)
   rn_rdtmax   = 28800.          !  maximum time step on tracers (used if nn_acc=1)
   rn_rdth     =  800.           !  depth variation of tracer time step  (used if nn_acc=1)
/
!-----------------------------------------------------------------------
&namtsd    !   data : Temperature  & Salinity
!-----------------------------------------------------------------------
!          ! file name ! frequency (hours)    ! variable ! time interp. ! clim  !'yearly' or ! weights  ! rotation !
!          !           !  (if <0  months)     !   name   !  (logical)   ! (T/F) ! 'monthly'  ! filename ! pairing  !
   sn_tem  = 'IC_T', -1,'votemper',  .true.  , .true., 'yearly'   , ' '      , ' '
   sn_sal  = 'IC_S'             , -1,'vosaline',  .true.  , .true., 'yearly'   , ''       , ' '
   !
   cn_dir        = './'     !  root directory for the location of the runoff files
   ln_tsd_init   = .true.   !  Initialisation of ocean T & S with T &S input data (T) or not (F)
   ln_tsd_tradmp = .false.   !  damping of ocean T & S toward T &S input data (T) or not (F)
/
!!======================================================================
!!            ***  Surface Boundary Condition namelists  ***
!!======================================================================
!!   namsbc          surface boundary condition
!!   namsbc_ana      analytical         formulation
!!   namsbc_flx      flux               formulation
!!   namsbc_clio     CLIO bulk formulae formulation
!!   namsbc_core     CORE bulk formulae formulation
!!   namsbc_mfs      MFS  bulk formulae formulation
!!   namsbc_cpl      CouPLed            formulation                     ("key_coupled")
!!   namtra_qsr      penetrative solar radiation
!!   namsbc_rnf      river runoffs
!!   namsbc_apr      Atmospheric Pressure
!!   namsbc_ssr      sea surface restoring term (for T and/or S)
!!   namsbc_alb      albedo parameters
!!======================================================================
!
!-----------------------------------------------------------------------
&namsbc        !   Surface Boundary Condition (surface module)
!-----------------------------------------------------------------------
   nn_fsbc     = 3         !  frequency of surface boundary condition computation
                           !     (also = the frequency of sea-ice model call)
   ln_ana      = .false.   !  analytical formulation                    (T => fill namsbc_ana )
   ln_flx      = .false.   !  flux formulation                          (T => fill namsbc_flx )
   ln_blk_clio = .false.   !  CLIO bulk formulation                     (T => fill namsbc_clio)
   ln_blk_core = .true.    !  CORE bulk formulation                     (T => fill namsbc_core)
   ln_blk_mfs  = .false.   !  MFS bulk formulation                      (T => fill namsbc_mfs )
   ln_cpl      = .false.   !  Coupled formulation                       (T => fill namsbc_cpl )
   ln_apr_dyn  = .false.   !  Patm gradient added in ocean & ice Eqs.   (T => fill namsbc_apr )
   nn_ice      = 2         !  =0 no ice boundary condition   ,
                           !  =1 use observed ice-cover      ,
                           !  =2 ice-model used                         ("key_lim3" or "key_lim2)
   ln_dm2dc    = .false.   !  daily mean to diurnal cycle on short wave
   ln_rnf      = .true.    !  runoffs                                   (T => fill namsbc_rnf)
   ln_ssr      = .false.    !  Sea Surface Restoring on T and/or S       (T => fill namsbc_ssr)
   nn_fwb      = 2         !  FreshWater Budget: =0 unchecked
                           !     =1 global mean of e-p-r set to zero at each time step
                           !     =2 annual global mean of e-p-r set to zero
                           !     =3 global emp set to zero and spread out over erp area
   ln_cdgw = .false.       !  Neutral drag coefficient read from wave model (T => fill namsbc_wave)
/
!-----------------------------------------------------------------------
&namsbc_ana    !   analytical surface boundary condition
!-----------------------------------------------------------------------
   nn_tau000   =   0       !  gently increase the stress over the first ntau_rst time-steps
   rn_utau0    =   0.5     !  uniform value for the i-stress
   rn_vtau0    =   0.e0    !  uniform value for the j-stress
   rn_qns0     =   0.e0    !  uniform value for the total heat flux
   rn_qsr0     =   0.e0    !  uniform value for the solar radiation
   rn_emp0     =   0.e0    !  uniform value for the freswater budget (E-P)
/
!-----------------------------------------------------------------------
&namsbc_flx    !   surface boundary condition : flux formulation
!-----------------------------------------------------------------------
!              !  file name  ! frequency (hours) ! variable  ! time interp. !  clim  ! 'yearly'/ ! weights  ! rotation !
!              !             !  (if <0  months)  !   name    !   (logical)  !  (T/F) ! 'monthly' ! filename ! pairing  !
   sn_utau     = 'utau'      ,        24         , 'utau'    , .false.      , .false., 'yearly'  , ''       , ''
   sn_vtau     = 'vtau'      ,        24         , 'vtau'    , .false.      , .false., 'yearly'  , ''       , ''
   sn_qtot     = 'qtot'      ,        24         , 'qtot'    , .false.      , .false., 'yearly'  , ''       , ''
   sn_qsr      = 'qsr'       ,        24         , 'qsr'     , .false.      , .false., 'yearly'  , ''       , ''
   sn_emp      = 'emp'       ,        24         , 'emp'     , .false.      , .false., 'yearly'  , ''       , ''

   cn_dir      = './'      !  root directory for the location of the flux files
/
!-----------------------------------------------------------------------
&namsbc_clio   !   namsbc_clio  CLIO bulk formulae
!-----------------------------------------------------------------------
!              !  file name  ! frequency (hours) ! variable  ! time interp. !  clim  ! 'yearly'/ ! weights  ! rotation !
!              !             !  (if <0  months)  !   name    !   (logical)  !  (T/F) ! 'monthly' ! filename ! pairing  !
   sn_utau     = 'taux_1m'   ,       -1          , 'sozotaux',   .true.     , .true. , 'yearly'  , ''       , ''
   sn_vtau     = 'tauy_1m'   ,       -1          , 'sometauy',   .true.     , .true. , 'yearly'  , ''       , ''
   sn_wndm     = 'flx'       ,       -1          , 'socliowi',   .true.     , .true. , 'yearly'  , ''       , ''
   sn_tair     = 'flx'       ,       -1          , 'socliot2',   .true.     , .true. , 'yearly'  , ''       , ''
   sn_humi     = 'flx'       ,       -1          , 'socliohu',   .true.     , .true. , 'yearly'  , ''       , ''
   sn_ccov     = 'flx'       ,       -1          , 'socliocl',   .false.    , .true. , 'yearly'  , ''       , ''
   sn_prec     = 'flx'       ,       -1          , 'socliopl',   .false.    , .true. , 'yearly'  , ''       , ''

   cn_dir      = './'      !  root directory for the location of the bulk files are
/
!-----------------------------------------------------------------------
&namsbc_core   !   namsbc_core  CORE bulk formulae
!-----------------------------------------------------------------------
!              !  file name                    ! frequency (hours) ! variable  ! time interp. !  clim  ! 'yearly'/ ! weights  ! rotation !
!              !                               !  (if <0  months)  !   name    !   (logical)  !  (T/F) ! 'monthly' ! filename ! pairing  !
   sn_wndi     = 'u10'                    ,         3         ,      'u10'    ,   .true.    , .true. , 'yearly'  , ''       , 'Uwnd'
   sn_wndj     = 'v10'                    ,         3         ,      'v10'    ,   .true.    , .true. , 'yearly'  , ''       , 'Vwnd'
   sn_qsr      = 'radsw'                   ,        24         ,      'radsw'  ,  .true.    , .true. , 'yearly'  , ''       , ''
   sn_qlw      = 'radlw'                   ,        24         ,      'radlw'  ,  .true.    , .true. , 'yearly'  , ''       , ''
   sn_tair     = 't2'                      ,         3         ,      't2'     ,  .true.    , .true. , 'yearly'  , ''       , ''
   sn_humi     = 'q2'                      ,         3         ,      'q2'     ,  .true.    , .true. , 'yearly'  , ''       , ''
   sn_prec     = 'precip'                  ,        24         ,      'precip' ,  .true.    , .true. , 'yearly'  , ''       , ''
   sn_snow     = 'snow'                    ,        24         ,      'snow'   ,  .true.    , .true. , 'yearly'  , ''       , ''
   sn_tdif     = '----'                    ,        24         ,      'taudif' ,  .true.    , .true. , 'yearly'  , ''       , ''

   cn_dir      = './'      !  root directory for the location of the bulk files
   ln_2m       = .true.   !  air temperature and humidity referenced at 2m (T) instead 10m (F)
   ln_taudif   = .false.   !  HF tau contribution: use "mean of stress module - module of the mean stress" data
   rn_pfac     = 1.        !  multiplicative factor for precipitation (total & snow)
/
!-----------------------------------------------------------------------
&namsbc_mfs   !   namsbc_mfs  MFS bulk formulae
!-----------------------------------------------------------------------
!              !  file name  ! frequency (hours) ! variable  ! time interp. !  clim  ! 'yearly'/ ! weights  ! rotation !
!              !             !  (if <0  months)  !   name    !   (logical)  !  (T/F) ! 'monthly' ! filename ! pairing  !
   sn_wndi     =   'ecmwf'   ,        6          , 'u10'     ,    .true.    , .false. , 'daily'  ,'bicubic.nc' , ''
   sn_wndj     =   'ecmwf'   ,        6          , 'v10'     ,    .true.    , .false. , 'daily'  ,'bicubic.nc' , ''
   sn_clc      =   'ecmwf'   ,        6          , 'clc'     ,    .true.    , .false. , 'daily'  ,'bilinear.nc', ''
   sn_msl      =   'ecmwf'   ,        6          , 'msl'     ,    .true.    , .false. , 'daily'  ,'bicubic.nc' , ''
   sn_tair     =   'ecmwf'   ,        6          , 't2'      ,    .true.    , .false. , 'daily'  ,'bicubic.nc' , ''
   sn_rhm      =   'ecmwf'   ,        6          , 'rh'      ,    .true.    , .false. , 'daily'  ,'bilinear.nc', ''
   sn_prec     =   'ecmwf'   ,        6          , 'precip'  ,    .true.    , .true.  , 'daily'  ,'bicubic.nc' , ''

   cn_dir      = './ECMWF/'      !  root directory for the location of the bulk files
/
!-----------------------------------------------------------------------
&namsbc_cpl    !   coupled ocean/atmosphere model                       ("key_coupled")
!-----------------------------------------------------------------------
!                    !     description       !  multiple  !    vector   !      vector          ! vector !
!                    !                       ! categories !  reference  !    orientation       ! grids  !
! send
sn_snd_temp   =       'weighted oce and ice' ,    'no'    ,     ''      ,         ''           ,   ''
sn_snd_alb    =       'weighted ice'         ,    'no'    ,     ''      ,         ''           ,   ''
sn_snd_thick  =       'none'                 ,    'no'   ,     ''      ,         ''           ,   ''
sn_snd_crt    =       'none'                 ,    'no'    , 'spherical' , 'eastward-northward' ,  'T'
sn_snd_co2    =       'coupled'              ,    'no'    ,     ''      ,         ''           ,   ''
! receive
sn_rcv_w10m   =       'none'                 ,    'no'    ,     ''      ,         ''          ,   ''
sn_rcv_taumod =       'coupled'              ,    'no'    ,     ''      ,         ''          ,   ''
sn_rcv_tau    =       'oce only'             ,    'no'    , 'cartesian' , 'eastward-northward',  'U,V'
sn_rcv_dqnsdt =       'coupled'              ,    'no'    ,     ''      ,         ''          ,   ''
sn_rcv_qsr    =       'oce and ice'          ,    'no'    ,     ''      ,         ''          ,   ''
sn_rcv_qns    =       'oce and ice'          ,    'no'    ,     ''      ,         ''          ,   ''
sn_rcv_emp    =       'conservative'         ,    'no'    ,     ''      ,         ''          ,   ''
sn_rcv_rnf    =       'coupled'              ,    'no'    ,     ''      ,         ''          ,   ''
sn_rcv_cal    =       'coupled'              ,    'no'    ,     ''      ,         ''          ,   ''
sn_rcv_co2    =       'coupled'              ,    'no'    ,     ''      ,         ''          ,   ''
/
!-----------------------------------------------------------------------
&namtra_qsr    !   penetrative solar radiation
!-----------------------------------------------------------------------
!              !  file name  ! frequency (hours) ! variable  ! time interp. !  clim  ! 'yearly'/ ! weights  ! rotation !
!              !             !  (if <0  months)  !   name    !   (logical)  !  (T/F) ! 'monthly' ! filename ! pairing  !
   sn_chl      ='chlorophyll',        -1         , 'CHLA'    ,   .true.     , .true. , 'yearly'  , ''       , ''

   cn_dir      = './'      !  root directory for the location of the runoff files
   ln_traqsr   = .true.    !  Light penetration (T) or not (F)
   ln_qsr_rgb  = .true.    !  RGB (Red-Green-Blue) light penetration
   ln_qsr_2bd  = .false.   !  2 bands              light penetration
   ln_qsr_bio  = .false.   !  bio-model light penetration
   nn_chldta   =      0    !  RGB : Chl data (=1) or cst value (=0)
   rn_abs      =   0.58    !  RGB & 2 bands: fraction of light (rn_si1)
   rn_si0      =   0.35    !  RGB & 2 bands: shortess depth of extinction
   rn_si1      =   23.0    !  2 bands: longest depth of extinction
/
!-----------------------------------------------------------------------
&namsbc_rnf    !   runoffs namelist surface boundary condition
!-----------------------------------------------------------------------
!              !  file name           ! frequency (hours) ! variable  ! time interp. !  clim  ! 'yearly'/ ! weights  ! rotation !
!              !                      !  (if <0  months)  !   name    !   (logical)  !  (T/F) ! 'monthly' ! filename ! pairing  !
   sn_rnf      = 'runoff_1m_nomask',        -1         , 'sorunoff',   .true.     , .true. , 'yearly'  , ''       , ''
   sn_cnf      = 'runoff_1m_nomask',         0         , 'socoefr',   .false.    , .true. , 'yearly'  , ''       , ''
   sn_s_rnf    = 'runoffs'            ,        24         , 'rosaline',   .true.     , .true. , 'yearly'  , ''       , ''
   sn_t_rnf    = 'runoffs'            ,        24         , 'rotemper',   .true.     , .true. , 'yearly'  , ''       , ''
   sn_dep_rnf  = 'runoffs'            ,         0         , 'rodepth' ,   .false.    , .true. , 'yearly'  , ''       , ''

   cn_dir       = './'      !  root directory for the location of the runoff files
   ln_rnf_emp   = .false.   !  runoffs included into precipitation field (T) or into a file (F)
   ln_rnf_mouth = .false.    !  specific treatment at rivers mouths
   rn_hrnf      =  15.e0    !  depth over which enhanced vertical mixing is used
   rn_avt_rnf   =   1.e-3   !  value of the additional vertical mixing coef. [m2/s]
   rn_rfact     =   1.e0    !  multiplicative factor for runoff
   ln_rnf_depth = .false.   !  read in depth information for runoff
   ln_rnf_tem   = .false.   !  read in temperature information for runoff
   ln_rnf_sal   = .false.   !  read in salinity information for runoff
/
!-----------------------------------------------------------------------
&namsbc_apr    !   Atmospheric pressure used as ocean forcing or in bulk
!-----------------------------------------------------------------------
!              ! file name ! frequency (hours) ! variable ! time interpol. !  clim   ! 'yearly'/ ! weights  ! rotation !
!              !           !  (if <0  months)  !   name   !    (logical)   !  (T/F)  ! 'monthly' ! filename ! pairing  !
   sn_apr      = 'patm'    ,         -1        ,'somslpre',    .true.      , .true.  , 'yearly'  ,  ''      ,   ''

   cn_dir      = './'       !  root directory for the location of the bulk files
   rn_pref     = 101000._wp !  reference atmospheric pressure   [N/m2]/
   ln_ref_apr  = .false.    !  ref. pressure: global mean Patm (T) or a constant (F)
   ln_apr_obc  = .false.    !  inverse barometer added to OBC ssh data
/
!-----------------------------------------------------------------------
&namsbc_ssr    !   surface boundary condition : sea surface restoring
!-----------------------------------------------------------------------
!              !  file name  ! frequency (hours) ! variable  ! time interp. !  clim  ! 'yearly'/ ! weights  ! rotation !
!              !             !  (if <0  months)  !   name    !   (logical)  !  (T/F) ! 'monthly' ! filename ! pairing  !
   sn_sst      = 'sst_data'  ,        24         ,  'sst'    ,    .false.   , .false., 'yearly'  , ''       , ''
   sn_sss      = 'sss_data'  ,        -1         ,  'sss'    ,    .true.    , .true. , 'yearly'  , ''       , ''

   cn_dir      = './'      !  root directory for the location of the runoff files
   nn_sstr     =     0     !  add a retroaction term in the surface heat       flux (=1) or not (=0)
   nn_sssr     =     0     !  add a damping     term in the surface freshwater flux (=2)
                           !  or to SSS only (=1) or no damping term (=0)
   rn_dqdt     =   -40.    !  magnitude of the retroaction on temperature   [W/m2/K]
   rn_deds     =  -166.67  !  magnitude of the damping on salinity   [mm/day]
   ln_sssr_bnd =   .true.  !  flag to bound erp term (associated with nn_sssr=2)
   rn_sssr_bnd =   4.e0    !  ABS(Max/Min) value of the damping erp term [mm/day]
/
!-----------------------------------------------------------------------
&namsbc_alb    !   albedo parameters
!-----------------------------------------------------------------------
   rn_cloud    =    0.06   !  cloud correction to snow and ice albedo
   rn_albice   =    0.53   !  albedo of melting ice in the arctic and antarctic
   rn_alphd    =    0.80   !  coefficients for linear interpolation used to
   rn_alphc    =    0.65   !  compute albedo between two extremes values
   rn_alphdi   =    0.72   !  (Pyane, 1972)
/

!!======================================================================
!!               ***  Lateral boundary condition  ***
!!======================================================================
!!   namlbc        lateral momentum boundary condition
!!   namcla        cross land advection
!!   namobc        open boundaries parameters                           ("key_obc")
!!   namagrif      agrif nested grid ( read by child model only )       ("key_agrif")
!!   nambdy        Unstructured open boundaries                         ("key_bdy")
!!   namtide       Tidal forcing at open boundaries                     ("key_bdy_tides")
!!======================================================================
!
!-----------------------------------------------------------------------
&namlbc        !   lateral momentum boundary condition
!-----------------------------------------------------------------------
   rn_shlat    =    2.     !  shlat = 0  !  0 < shlat < 2  !  shlat = 2  !  2 < shlat
                           !  free slip  !   partial slip  !   no slip   ! strong slip
   ln_vorlat   = .false.   !  consistency of vorticity boundary condition with analytical eqs.
/
!-----------------------------------------------------------------------
&namcla        !   cross land advection
!-----------------------------------------------------------------------
   nn_cla      =    0      !  advection between 2 ocean pts separates by land
/
!-----------------------------------------------------------------------
&namobc        !   open boundaries parameters                           ("key_obc")
!-----------------------------------------------------------------------
   ln_obc_clim = .false.   !  climatological obc data files (T) or not (F)
   ln_vol_cst  = .true.    !  impose the total volume conservation (T) or not (F)
   ln_obc_fla  = .false.   !  Flather open boundary condition
   nn_obcdta   =    1      !  = 0 the obc data are equal to the initial state
                           !  = 1 the obc data are read in 'obc.dta' files
   cn_obcdta   = 'annual'  !  set to annual if obc datafile hold 1 year of data
                           !  set to monthly if obc datafile hold 1 month of data
   rn_dpein    =    1.     !  damping time scale for inflow at east  open boundary
   rn_dpwin    =    1.     !     -           -         -       west    -      -
   rn_dpnin    =    1.     !     -           -         -       north   -      -
   rn_dpsin    =    1.     !     -           -         -       south   -      -
   rn_dpeob    = 3000.     !  time relaxation (days) for the east  open boundary
   rn_dpwob    =   15.     !     -           -         -     west    -      -
   rn_dpnob    = 3000.     !     -           -         -     north   -      -
   rn_dpsob    =   15.     !     -           -         -     south   -      -
   rn_volemp   =    1.     !  = 0 the total volume change with the surface flux (E-P-R)
                           !  = 1 the total volume remains constant
/
!-----------------------------------------------------------------------
&namagrif      !  AGRIF zoom                                            ("key_agrif")
!-----------------------------------------------------------------------
   nn_cln_update =    3    !  baroclinic update frequency
   ln_spc_dyn    = .true.  !  use 0 as special value for dynamics
   rn_sponge_tra = 2880.   !  coefficient for tracer   sponge layer [m2/s]
   rn_sponge_dyn = 2880.   !  coefficient for dynamics sponge layer [m2/s]
/
!-----------------------------------------------------------------------
&nam_tide      !   tide parameters (#ifdef key_tide)
!-----------------------------------------------------------------------
   ln_tide_pot   = .true.   !  use tidal potential forcing
   nb_harmo      =    11    !  number of constituents used
   clname(1)     =   'M2'   !  name of constituent
   clname(2)     =   'S2'
   clname(3)     =   'N2'
   clname(4)     =   'K1'
   clname(5)     =   'O1'
   clname(6)     =   'Q1'
   clname(7)     =   'M4'
   clname(8)     =   'K2'
   clname(9)     =   'P1'
   clname(10)    =   'Mf'
   clname(11)    =   'Mm'
/
!-----------------------------------------------------------------------
&nambdy        !  unstructured open boundaries                          ("key_bdy")
!-----------------------------------------------------------------------
    nb_bdy = 1                            !  number of open boundary sets
    ln_coords_file = .true.               !  =T : read bdy coordinates from file
    cn_coords_file = 'coordinates.bdy.nc' !  bdy coordinates files
    ln_mask_file = .false.                !  =T : read mask from file
    cn_mask_file = ''                     !  name of mask file (if ln_mask_file=.TRUE.)
    nn_dyn2d      =  2                    !  boundary conditions for barotropic fields
    nn_dyn2d_dta  =  3                    !  = 0, bdy data are equal to the initial state
                                          !  = 1, bdy data are read in 'bdydata   .nc' files
                                          !  = 2, use tidal harmonic forcing data from files
                                          !  = 3, use external data AND tidal harmonic forcing
    nn_dyn3d      =  0                    !  boundary conditions for baroclinic velocities
    nn_dyn3d_dta  =  0                    !  = 0, bdy data are equal to the initial state
                           !  = 1, bdy data are read in 'bdydata   .nc' files
    nn_tra        =  1                    !  boundary conditions for T and S
    nn_tra_dta    =  1                    !  = 0, bdy data are equal to the initial state
                           !  = 1, bdy data are read in 'bdydata   .nc' files